5362720
  -OEChem-11122418033D

 26 25  0     0  0  0  0  0  0999 V2000
    4.0951   -0.8952   -0.6971 O   0  0  0  0  0  0  0  0  0  0  0  0
    0.2595    0.7890    0.2211 C   0  0  0  0  0  0  0  0  0  0  0  0
    1.5770    0.1354   -0.2080 C   0  0  0  0  0  0  0  0  0  0  0  0
   -0.8314    0.5790   -0.8316 C   0  0  0  0  0  0  0  0  0  0  0  0
    2.6869    0.3385    0.8187 C   0  0  0  0  0  0  0  0  0  0  0  0
   -2.1142    1.2444   -0.4252 C   0  0  0  0  0  0  0  0  0  0  0  0
   -3.0788    0.6360    0.2805 C   0  0  0  0  0  0  0  0  0  0  0  0
   -2.9968   -0.7855    0.7520 C   0  0  0  0  0  0  0  0  0  0  0  0
    3.9760   -0.2968    0.3673 C   0  0  0  0  0  0  0  0  0  0  0  0
   -3.5733   -1.7449   -0.2777 C   0  0  0  0  0  0  0  0  0  0  0  0
   -0.0546    0.3712    1.1852 H   0  0  0  0  0  0  0  0  0  0  0  0
    0.4215    1.8632    0.3770 H   0  0  0  0  0  0  0  0  0  0  0  0
    1.4148   -0.9385   -0.3666 H   0  0  0  0  0  0  0  0  0  0  0  0
    1.8893    0.5511   -1.1746 H   0  0  0  0  0  0  0  0  0  0  0  0
   -0.9709   -0.4900   -1.0240 H   0  0  0  0  0  0  0  0  0  0  0  0
   -0.5123    1.0115   -1.7882 H   0  0  0  0  0  0  0  0  0  0  0  0
    2.4105   -0.1087    1.7791 H   0  0  0  0  0  0  0  0  0  0  0  0
    2.8769    1.4054    0.9755 H   0  0  0  0  0  0  0  0  0  0  0  0
   -2.2535    2.2818   -0.7175 H   0  0  0  0  0  0  0  0  0  0  0  0
   -3.9806    1.1920    0.5229 H   0  0  0  0  0  0  0  0  0  0  0  0
   -1.9710   -1.0781    0.9980 H   0  0  0  0  0  0  0  0  0  0  0  0
   -3.5626   -0.8725    1.6874 H   0  0  0  0  0  0  0  0  0  0  0  0
    4.8275   -0.1918    1.0607 H   0  0  0  0  0  0  0  0  0  0  0  0
   -3.0188   -1.7107   -1.2208 H   0  0  0  0  0  0  0  0  0  0  0  0
   -3.5303   -2.7716    0.1000 H   0  0  0  0  0  0  0  0  0  0  0  0
   -4.6215   -1.5102   -0.4923 H   0  0  0  0  0  0  0  0  0  0  0  0
  1  9  2  0  0  0  0
  2  3  1  0  0  0  0
  2  4  1  0  0  0  0
  2 11  1  0  0  0  0
  2 12  1  0  0  0  0
  3  5  1  0  0  0  0
  3 13  1  0  0  0  0
  3 14  1  0  0  0  0
  4  6  1  0  0  0  0
  4 15  1  0  0  0  0
  4 16  1  0  0  0  0
  5  9  1  0  0  0  0
  5 17  1  0  0  0  0
  5 18  1  0  0  0  0
  6  7  2  0  0  0  0
  6 19  1  0  0  0  0
  7  8  1  0  0  0  0
  7 20  1  0  0  0  0
  8 10  1  0  0  0  0
  8 21  1  0  0  0  0
  8 22  1  0  0  0  0
  9 23  1  0  0  0  0
 10 24  1  0  0  0  0
 10 25  1  0  0  0  0
 10 26  1  0  0  0  0
M  END
> <PUBCHEM_COMPOUND_CID>
5362720

> <PUBCHEM_CONFORMER_RMSD>
0.6

> <PUBCHEM_CONFORMER_DIVERSEORDER>
3
102
70
132
19
184
166
15
125
34
141
138
36
180
179
117
157
170
95
167
85
163
32
154
29
134
126
2
139
177
145
4
176
26
112
108
61
137
56
168
76
54
120
59
135
96
62
28
78
143
9
107
52
58
73
45
106
183
1
172
171
89
174
22
100
114
164
182
12
75
159
18
103
90
47
105
93
150
84
49
173
77
162
48
169
86
123
129
87
146
98
17
178
66
133
92
33
153
111
181
31
151
5
158
35
83
165
116
149
7
23
67
140
6
21
115
91
82
161
11
175
156
79
8
71
41
144
69
63
43
38
53
42
68
155
16
128
37
60
14
113
51
94
39
81
104
101
118
124
147
27
13
136
25
65
24
80
30
160
44
64
50
74
148
122
46
131
88
130
127
121
142
40
97
10
152
20
72
109
99
119
55
110
57

> <PUBCHEM_MMFF94_PARTIAL_CHARGES>
10
1 -0.57
19 0.15
20 0.15
23 0.06
4 0.14
5 0.06
6 -0.29
7 -0.29
8 0.14
9 0.45

> <PUBCHEM_EFFECTIVE_ROTOR_COUNT>
6

> <PUBCHEM_PHARMACOPHORE_FEATURES>
3
1 1 acceptor
1 10 hydrophobe
5 2 3 4 5 6 hydrophobe

> <PUBCHEM_HEAVY_ATOM_COUNT>
10

> <PUBCHEM_ATOM_DEF_STEREO_COUNT>
0

> <PUBCHEM_ATOM_UDEF_STEREO_COUNT>
0

> <PUBCHEM_BOND_DEF_STEREO_COUNT>
1

> <PUBCHEM_BOND_UDEF_STEREO_COUNT>
0

> <PUBCHEM_ISOTOPIC_ATOM_COUNT>
0

> <PUBCHEM_COMPONENT_COUNT>
1

> <PUBCHEM_CACTVS_TAUTO_COUNT>
2

> <PUBCHEM_CONFORMER_ID>
0051D42000000003

> <PUBCHEM_MMFF94_ENERGY>
1.6715

> <PUBCHEM_FEATURE_SELFOVERLAP>
15.223

> <PUBCHEM_SHAPE_FINGERPRINT>
11987891 27 17168137923782300482
12032990 46 18343022181564630788
12932764 1 17458336412478207440
14123260 362 9727360189721559107
14251710 61 18409735092160678819
177051 138 18410574019516470760
17834074 16 18342459214299867934
18342897 69 18260259711964053272
190213 19 18202560661985335480
20211469 26 18340762732582990055
20281407 28 18334855004555730056
20645464 45 17632301155389052381
20671657 53 17240758531839632061
20828058 44 18410008810774216296
21061003 4 18060700602270266865
21293036 1 13190344573223919376
22485316 2 18334290946711671472
23402539 116 16515962580381826276
23402655 69 13984658140371362398
42627469 27 14046026303453617252
449060 23 18186802478188695887
528716 315 17095245821566698921

> <PUBCHEM_SHAPE_MULTIPOLES>
199.93
8.21
1.36
0.9
4.91
0.3
-0.01
3.38
-0.32
-1.36
0.15
0.08
0.02
0.28

> <PUBCHEM_SHAPE_SELFOVERLAP>
361.943

> <PUBCHEM_SHAPE_VOLUME>
127.4

> <PUBCHEM_COORDINATE_TYPE>
2
5
10

$$$$
