98118
  -OEChem-11122418053D

 49 49  0     1  0  0  0  0  0999 V2000
    5.7051   -1.0557   -0.4344 O   0  0  0  0  0  0  0  0  0  0  0  0
   -2.8404   -2.6937   -0.4537 O   0  0  0  0  0  0  0  0  0  0  0  0
   -2.5316   -1.0952   -2.0810 O   0  0  0  0  0  0  0  0  0  0  0  0
   -1.6565    1.2292   -0.8897 N   0  0  0  0  0  0  0  0  0  0  0  0
    2.4806    1.8939   -0.0026 C   0  0  0  0  0  0  0  0  0  0  0  0
    3.2172    0.5863   -0.3143 C   0  0  0  0  0  0  0  0  0  0  0  0
    1.6399    2.4261   -1.1815 C   0  0  1  0  0  0  0  0  0  0  0  0
    4.0497    0.1244    0.8901 C   0  0  0  0  0  0  0  0  0  0  0  0
    4.8093   -1.2004    0.6697 C   0  0  0  0  0  0  0  0  0  0  0  0
    0.6192    1.4141   -1.7292 C   0  0  0  0  0  0  0  0  0  0  0  0
    0.9609    3.7414   -0.7826 C   0  0  0  0  0  0  0  0  0  0  0  0
    3.8715   -2.3649    0.3486 C   0  0  0  0  0  0  0  0  0  0  0  0
    5.6430   -1.5355    1.9106 C   0  0  0  0  0  0  0  0  0  0  0  0
   -0.3990    0.9943   -0.7009 C   0  0  0  0  0  0  0  0  0  0  0  0
   -2.5170    0.8255    0.1441 C   0  0  0  0  0  0  0  0  0  0  0  0
   -3.0760   -0.4505    0.1490 C   0  0  0  0  0  0  0  0  0  0  0  0
   -2.8061    1.7224    1.1702 C   0  0  0  0  0  0  0  0  0  0  0  0
   -3.9282   -0.8316    1.1854 C   0  0  0  0  0  0  0  0  0  0  0  0
   -3.6582    1.3412    2.2067 C   0  0  0  0  0  0  0  0  0  0  0  0
   -4.2192    0.0643    2.2143 C   0  0  0  0  0  0  0  0  0  0  0  0
   -2.7895   -1.4068   -0.9123 C   0  0  0  0  0  0  0  0  0  0  0  0
   -2.5745   -3.7287   -1.4064 C   0  0  0  0  0  0  0  0  0  0  0  0
    1.8440    1.7533    0.8796 H   0  0  0  0  0  0  0  0  0  0  0  0
    3.2196    2.6576    0.2734 H   0  0  0  0  0  0  0  0  0  0  0  0
    2.4898   -0.1914   -0.5601 H   0  0  0  0  0  0  0  0  0  0  0  0
    3.8591    0.7343   -1.1893 H   0  0  0  0  0  0  0  0  0  0  0  0
    2.3322    2.6555   -2.0029 H   0  0  0  0  0  0  0  0  0  0  0  0
    4.7771    0.9153    1.1169 H   0  0  0  0  0  0  0  0  0  0  0  0
    3.3956    0.0285    1.7663 H   0  0  0  0  0  0  0  0  0  0  0  0
    1.1177    0.5121   -2.0966 H   0  0  0  0  0  0  0  0  0  0  0  0
    0.0937    1.8524   -2.5865 H   0  0  0  0  0  0  0  0  0  0  0  0
    0.3790    4.1473   -1.6168 H   0  0  0  0  0  0  0  0  0  0  0  0
    0.2870    3.6071    0.0699 H   0  0  0  0  0  0  0  0  0  0  0  0
    1.7083    4.4916   -0.5027 H   0  0  0  0  0  0  0  0  0  0  0  0
    3.3679   -2.2336   -0.6148 H   0  0  0  0  0  0  0  0  0  0  0  0
    4.4352   -3.3013    0.2612 H   0  0  0  0  0  0  0  0  0  0  0  0
    3.1120   -2.4949    1.1264 H   0  0  0  0  0  0  0  0  0  0  0  0
    6.2332   -2.4453    1.7512 H   0  0  0  0  0  0  0  0  0  0  0  0
    5.0126   -1.6799    2.7940 H   0  0  0  0  0  0  0  0  0  0  0  0
    6.3622   -0.7362    2.1230 H   0  0  0  0  0  0  0  0  0  0  0  0
    5.1833   -1.0060   -1.2526 H   0  0  0  0  0  0  0  0  0  0  0  0
   -0.0251    0.4767    0.2009 H   0  0  0  0  0  0  0  0  0  0  0  0
   -2.3745    2.7199    1.1730 H   0  0  0  0  0  0  0  0  0  0  0  0
   -4.3936   -1.8134    1.2143 H   0  0  0  0  0  0  0  0  0  0  0  0
   -3.8856    2.0390    3.0072 H   0  0  0  0  0  0  0  0  0  0  0  0
   -4.8853   -0.2309    3.0198 H   0  0  0  0  0  0  0  0  0  0  0  0
   -2.6509   -4.6912   -0.8939 H   0  0  0  0  0  0  0  0  0  0  0  0
   -3.3139   -3.6983   -2.2122 H   0  0  0  0  0  0  0  0  0  0  0  0
   -1.5619   -3.6215   -1.8065 H   0  0  0  0  0  0  0  0  0  0  0  0
  1  9  1  0  0  0  0
  1 41  1  0  0  0  0
  2 21  1  0  0  0  0
  2 22  1  0  0  0  0
  3 21  2  0  0  0  0
  4 14  2  0  0  0  0
  4 15  1  0  0  0  0
  5  6  1  0  0  0  0
  5  7  1  0  0  0  0
  5 23  1  0  0  0  0
  5 24  1  0  0  0  0
  6  8  1  0  0  0  0
  6 25  1  0  0  0  0
  6 26  1  0  0  0  0
  7 10  1  0  0  0  0
  7 11  1  0  0  0  0
  7 27  1  0  0  0  0
  8  9  1  0  0  0  0
  8 28  1  0  0  0  0
  8 29  1  0  0  0  0
  9 12  1  0  0  0  0
  9 13  1  0  0  0  0
 10 14  1  0  0  0  0
 10 30  1  0  0  0  0
 10 31  1  0  0  0  0
 11 32  1  0  0  0  0
 11 33  1  0  0  0  0
 11 34  1  0  0  0  0
 12 35  1  0  0  0  0
 12 36  1  0  0  0  0
 12 37  1  0  0  0  0
 13 38  1  0  0  0  0
 13 39  1  0  0  0  0
 13 40  1  0  0  0  0
 14 42  1  0  0  0  0
 15 16  1  0  0  0  0
 15 17  2  0  0  0  0
 16 18  2  0  0  0  0
 16 21  1  0  0  0  0
 17 19  1  0  0  0  0
 17 43  1  0  0  0  0
 18 20  1  0  0  0  0
 18 44  1  0  0  0  0
 19 20  2  0  0  0  0
 19 45  1  0  0  0  0
 20 46  1  0  0  0  0
 22 47  1  0  0  0  0
 22 48  1  0  0  0  0
 22 49  1  0  0  0  0
M  END
> <PUBCHEM_COMPOUND_CID>
98118

> <PUBCHEM_CONFORMER_RMSD>
1

> <PUBCHEM_CONFORMER_DIVERSEORDER>
1
131
279
205
287
271
307
28
240
24
341
168
94
324
119
104
109
8
277
38
252
35
288
309
98
211
26
312
44
3
43
296
172
335
203
64
321
67
132
212
120
340
310
295
187
137
274
42
71
303
336
22
192
214
318
115
315
320
2
305
12
48
23
308
46
207
108
251
266
147
101
91
51
300
21
244
155
198
299
189
75
11
143
306
56
261
157
164
218
328
339
242
89
259
73
136
186
225
142
338
144
297
304
153
234
235
69
113
90
223
291
61
36
222
202
332
196
37
20
232
4
253
54
166
134
250
276
227
195
208
53
230
330
200
59
188
311
273
66
125
5
221
139
327
228
333
201
269
256
158
280
39
171
298
294
85
127
25
199
63
116
10
152
130
175
176
278
247
84
154
285
156
241
93
216
78
316
314
167
129
60
58
313
81
204
57
286
17
18
86
62
65
92
237
185
140
107
322
289
226
7
102
126
182
106
170
255
74
326
215
177
293
16
76
290
111
70
260
138
80
233
282
32
50
292
141
162
163
284
97
220
14
236
31
30
52
123
249
254
179
191
243
27
257
151
19
206
82
55
128
145
150
15
45
262
323
13
334
331
33
41
105
110
317
210
165
272
178
224
319
217
29
68
301
337
265
281
88
302
229
49
159
117
100
160
169
219
114
275
47
263
184
72
325
161
181
133
124
149
246
190
121
146
180
99
122
194
112
239
118
264
95
9
6
96
173
238
268
79
270
267
103
87
329
248
193
209
34
148
283
183
231
258
245
197
135
174
213
40
83
77

> <PUBCHEM_MMFF94_PARTIAL_CHARGES>
21
1 -0.68
10 0.06
14 0.33
15 0.18
16 0.09
17 -0.15
18 -0.15
19 -0.15
2 -0.43
20 -0.15
21 0.63
22 0.28
3 -0.57
4 -0.63
41 0.4
42 0.06
43 0.15
44 0.15
45 0.15
46 0.15
9 0.28

> <PUBCHEM_EFFECTIVE_ROTOR_COUNT>
9

> <PUBCHEM_PHARMACOPHORE_FEATURES>
8
1 1 acceptor
1 1 donor
1 11 hydrophobe
1 3 acceptor
1 4 acceptor
3 9 12 13 hydrophobe
5 5 6 7 8 10 hydrophobe
6 15 16 17 18 19 20 rings

> <PUBCHEM_HEAVY_ATOM_COUNT>
22

> <PUBCHEM_ATOM_DEF_STEREO_COUNT>
0

> <PUBCHEM_ATOM_UDEF_STEREO_COUNT>
1

> <PUBCHEM_BOND_DEF_STEREO_COUNT>
0

> <PUBCHEM_BOND_UDEF_STEREO_COUNT>
0

> <PUBCHEM_ISOTOPIC_ATOM_COUNT>
0

> <PUBCHEM_COMPONENT_COUNT>
1

> <PUBCHEM_CACTVS_TAUTO_COUNT>
3

> <PUBCHEM_CONFORMER_ID>
00017F4600000001

> <PUBCHEM_MMFF94_ENERGY>
55.065

> <PUBCHEM_FEATURE_SELFOVERLAP>
40.604

> <PUBCHEM_SHAPE_FINGERPRINT>
10928967 22 18260825965306877722
11370993 144 17345752976325372150
11552529 35 18059562637842591550
12553582 1 18334296448928677260
12633257 1 18201727253445805588
12892183 10 17774711086972355680
13103583 49 18272656723163815360
13533116 47 18043264628850528617
13544653 18 18040152903538344548
14100547 121 18272933838485223383
14178342 30 18059585697389791111
14251757 17 15574436522731444200
14844126 61 17972581222341556160
14848178 96 11455888070847509312
14950920 106 17988627594016350016
15475509 35 17040080308747156435
15537594 2 18260838072856218470
15842332 3 18195542603788034357
16110190 28 18412830170865288902
16991981 162 13046488805536925023
16994733 274 14548185265078944787
17780758 139 18272645706583056000
1813 80 17895207562587121988
20554085 129 17202495390487381833
20693207 138 15213304187372222333
212916 134 17416708889861448913
21796203 349 18043559195019445848
235170 7 14057006001284276506
3737641 26 18192999214898230354
56633871 153 18340489962978065218
6431902 208 17532081706026823842
7064713 232 18060138721763656418
7097593 13 18341058509284318933

> <PUBCHEM_SHAPE_MULTIPOLES>
430.16
11.48
3.78
2.03
12.89
0.44
-0.48
7.26
-6.44
0.09
1.77
-1.63
0.19
-3.14

> <PUBCHEM_SHAPE_SELFOVERLAP>
863.519

> <PUBCHEM_SHAPE_VOLUME>
254.3

> <PUBCHEM_COORDINATE_TYPE>
2
5
10

$$$$
